#Number of vertices:
4
#Vertex 0:
1e-05 0.00042 1e-05
#Vertex 1:
1e-05 0.00045 1e-05
#Vertex 2:
1e-05 0.00045 2.7e-05
#Vertex 3:
1e-05 0.00042 2.7e-05
#Outward normal:
1 0 -0
#Volume references:
37 -1
#Maximum number of segments:
0 0
#Information on X periodicity:
1 10 0.00065
#Information on Y periodicity:
1 10 0.00065
#Information on Z periodicity:
0 0 0
