#Number of vertices:
4
#Vertex 0:
-0.000315 0.000325 1e-05
#Vertex 1:
-0.000165 0.000325 1e-05
#Vertex 2:
-0.000165 -0.000325 1e-05
#Vertex 3:
-0.000315 -0.000325 1e-05
#Outward normal:
0 0 1
#Volume references:
0 22
#Maximum number of segments:
0 0
#Information on X periodicity:
1 10 0.00065
#Information on Y periodicity:
1 10 0.00065
#Information on Z periodicity:
0 0 0
