#Number of vertices:
4
#Vertex 0:
-6.3e-05 -6.3e-05 1e-05
#Vertex 1:
-6.3e-05 6.3e-05 1e-05
#Vertex 2:
6.3e-05 6.3e-05 1e-05
#Vertex 3:
6.3e-05 -6.3e-05 1e-05
#Outward normal:
0 0 1
#Volume references:
0 -1
#Maximum number of segments:
0 0
#Information on X periodicity:
1 20 0.000126
#Information on Y periodicity:
1 20 0.000126
#Information on Z periodicity:
0 0 0
