#Number of vertices:
2
#Vertex 0:
-9.45e-05 -0.000325 0.000164
#Vertex 1:
-9.45e-05 0.000325 0.000164
#Outward normal:
0 0 0
#Volume references:
4 -1
#Maximum number of segments:
0 0
#Information on X periodicity:
1 10 0.00065
#Information on Y periodicity:
1 10 0.00065
#Information on Z periodicity:
0 0 0
