#Number of vertices:
2
#Vertex 0:
-0.000325 3.15e-05 0.000182
#Vertex 1:
0.000325 3.15e-05 0.000182
#Outward normal:
0 0 0
#Volume references:
16 -1
#Maximum number of segments:
0 0
#Information on X periodicity:
1 10 0.00065
#Information on Y periodicity:
1 10 0.00065
#Information on Z periodicity:
0 0 0
