#Number of vertices:
4
#Vertex 0:
-5e-06 -0.000325 1e-05
#Vertex 1:
-5e-06 0.000325 1e-05
#Vertex 2:
-5e-06 0.000325 2.7e-05
#Vertex 3:
-5e-06 -0.000325 2.7e-05
#Outward normal:
1 0 -0
#Volume references:
23 -1
#Maximum number of segments:
0 0
#Information on X periodicity:
1 10 0.00065
#Information on Y periodicity:
1 10 0.00065
#Information on Z periodicity:
0 0 0
